*HEADING
Template maxilla MVP - low_kpa_plus_muscle
*NODE
1, 0.00000000, 0.01900000, 0.01640000
2, 0.00262928, 0.01908942, 0.01644280
3, 0.00536638, 0.01904633, 0.01648539
4, 0.00819456, 0.01887381, 0.01652754
5, 0.01109485, 0.01857651, 0.01656904
6, 0.01404621, 0.01816035, 0.01660968
7, 0.01702578, 0.01763227, 0.01664925
8, 0.02000912, 0.01699995, 0.01668755
9, 0.02297058, 0.01627147, 0.01672438
10, 0.02588360, 0.01545506, 0.01675957
11, 0.02872110, 0.01455886, 0.01679292
12, 0.03145584, 0.01359070, 0.01682426
13, 0.03406087, 0.01255796, 0.01685345
14, 0.03650988, 0.01146751, 0.01688032
15, 0.03877762, 0.01032567, 0.01690475
16, 0.04084029, 0.00913827, 0.01692661
17, 0.04267592, 0.00791079, 0.01694578
18, 0.04426469, 0.00664843, 0.01696217
19, 0.04558927, 0.00535633, 0.01697570
20, 0.04663508, 0.00403974, 0.01698629
** ... 2905 like lines cut
*ELEMENT, TYPE=C3D8, ELSET=EALL
1, 46, 47, 2, 1, 631, 632, 587, 586
2, 47, 48, 3, 2, 632, 633, 588, 587
3, 48, 49, 4, 3, 633, 634, 589, 588
4, 49, 50, 5, 4, 634, 635, 590, 589
5, 50, 51, 6, 5, 635, 636, 591, 590
6, 51, 52, 7, 6, 636, 637, 592, 591
7, 52, 53, 8, 7, 637, 638, 593, 592
8, 53, 54, 9, 8, 638, 639, 594, 593
9, 54, 55, 10, 9, 639, 640, 595, 594
10, 55, 56, 11, 10, 640, 641, 596, 595
11, 56, 57, 12, 11, 641, 642, 597, 596
12, 57, 58, 13, 12, 642, 643, 598, 597
13, 58, 59, 14, 13, 643, 644, 599, 598
14, 59, 60, 15, 14, 644, 645, 600, 599
15, 60, 61, 16, 15, 645, 646, 601, 600
16, 61, 62, 17, 16, 646, 647, 602, 601
17, 62, 63, 18, 17, 647, 648, 603, 602
18, 63, 64, 19, 18, 648, 649, 604, 603
19, 64, 65, 20, 19, 649, 650, 605, 604
20, 65, 66, 21, 20, 650, 651, 606, 605
** ... 2092 like lines cut
*NSET, NSET=NALL
1, 2, 3, 4, 5, 6, 7, 8, 9, 10, 11, 12, 13, 14, 15, 16
17, 18, 19, 20, 21, 22, 23, 24, 25, 26, 27, 28, 29, 30, 31, 32
33, 34, 35, 36, 37, 38, 39, 40, 41, 42, 43, 44, 45, 46, 47, 48
49, 50, 51, 52, 53, 54, 55, 56, 57, 58, 59, 60, 61, 62, 63, 64
65, 66, 67, 68, 69, 70, 71, 72, 73, 74, 75, 76, 77, 78, 79, 80
81, 82, 83, 84, 85, 86, 87, 88, 89, 90, 91, 92, 93, 94, 95, 96
97, 98, 99, 100, 101, 102, 103, 104, 105, 106, 107, 108, 109, 110, 111, 112
113, 114, 115, 116, 117, 118, 119, 120, 121, 122, 123, 124, 125, 126, 127, 128
129, 130, 131, 132, 133, 134, 135, 136, 137, 138, 139, 140, 141, 142, 143, 144
145, 146, 147, 148, 149, 150, 151, 152, 153, 154, 155, 156, 157, 158, 159, 160
161, 162, 163, 164, 165, 166, 167, 168, 169, 170, 171, 172, 173, 174, 175, 176
177, 178, 179, 180, 181, 182, 183, 184, 185, 186, 187, 188, 189, 190, 191, 192
193, 194, 195, 196, 197, 198, 199, 200, 201, 202, 203, 204, 205, 206, 207, 208
209, 210, 211, 212, 213, 214, 215, 216, 217, 218, 219, 220, 221, 222, 223, 224
225, 226, 227, 228, 229, 230, 231, 232, 233, 234, 235, 236, 237, 238, 239, 240
241, 242, 243, 244, 245, 246, 247, 248, 249, 250, 251, 252, 253, 254, 255, 256
257, 258, 259, 260, 261, 262, 263, 264, 265, 266, 267, 268, 269, 270, 271, 272
273, 274, 275, 276, 277, 278, 279, 280, 281, 282, 283, 284, 285, 286, 287, 288
289, 290, 291, 292, 293, 294, 295, 296, 297, 298, 299, 300, 301, 302, 303, 304
305, 306, 307, 308, 309, 310, 311, 312, 313, 314, 315, 316, 317, 318, 319, 320
** ... 163 like lines cut
*NSET, NSET=NSET_FIXED
1, 46, 91, 136, 181, 226, 271, 316, 361, 406, 451, 496, 541, 586, 631, 676
721, 766, 811, 856, 901, 946, 991, 1036, 1081, 1126, 1171, 1216, 1261, 1306, 1351, 1396
1441, 1486, 1531, 1576, 1621, 1666, 1711, 1756, 1801, 1846, 1891, 1936, 1981, 2026, 2071, 2116
2161, 2206, 2251, 2296, 2341, 2386, 2431, 2476, 2521, 2566, 2611, 2656, 2701, 2746, 2791, 2836
2881, 45, 90, 135, 180, 225, 270, 315, 360, 405, 450, 495, 540, 585, 630, 675
720, 765, 810, 855, 900, 945, 990, 1035, 1080, 1125, 1170, 1215, 1260, 1305, 1350, 1395
1440, 1485, 1530, 1575, 1620, 1665, 1710, 1755, 1800, 1845, 1890, 1935, 1980, 2025, 2070, 2115
2160, 2205, 2250, 2295, 2340, 2385, 2430, 2475, 2520, 2565, 2610, 2655, 2700, 2745, 2790, 2835
2880, 2925
*NSET, NSET=NSET_PALATE
1, 2, 3, 4, 5, 6, 7, 8, 9, 10, 11, 12, 13, 14, 15, 16
17, 18, 19, 20, 21, 22, 23, 24, 25, 26, 27, 28, 29, 30, 31, 32
33, 34, 35, 36, 37, 38, 39, 40, 41, 42, 43, 44, 45, 46, 47, 48
49, 50, 51, 52, 53, 54, 55, 56, 57, 58, 59, 60, 61, 62, 63, 64
65, 66, 67, 68, 69, 70, 71, 72, 73, 74, 75, 76, 77, 78, 79, 80
81, 82, 83, 84, 85, 86, 87, 88, 89, 90, 91, 92, 93, 94, 95, 96
97, 98, 99, 100, 101, 102, 103, 104, 105, 106, 107, 108, 109, 110, 111, 112
113, 114, 115, 116, 117, 118, 119, 120, 121, 122, 123, 124, 125, 126, 127, 128
129, 130, 131, 132, 133, 134, 135, 136, 137, 138, 139, 140, 141, 142, 143, 144
145, 146, 147, 148, 149, 150, 151, 152, 153, 154, 155, 156, 157, 158, 159, 160
161, 162, 163, 164, 165, 166, 167, 168, 169, 170, 171, 172, 173, 174, 175, 176
177, 178, 179, 180, 181, 182, 183, 184, 185, 186, 187, 188, 189, 190, 191, 192
193, 194, 195, 196, 197, 198, 199, 200, 201, 202, 203, 204, 205, 206, 207, 208
209, 210, 211, 212, 213, 214, 215, 216, 217, 218, 219, 220, 221, 222, 223, 224
225, 226, 227, 228, 229, 230, 231, 232, 233, 234, 235, 236, 237, 238, 239, 240
241, 242, 243, 244, 245, 246, 247, 248, 249, 250, 251, 252, 253, 254, 255, 256
257, 258, 259, 260, 261, 262, 263, 264, 265, 266, 267, 268, 269, 270, 271, 272
273, 274, 275, 276, 277, 278, 279, 280, 281, 282, 283, 284, 285, 286, 287, 288
289, 290, 291, 292, 293, 294, 295, 296, 297, 298, 299, 300, 301, 302, 303, 304
305, 306, 307, 308, 309, 310, 311, 312, 313, 314, 315, 316, 317, 318, 319, 320
** ... 17 like lines cut
*NSET, NSET=NSET_MUSCLE_ALL
2341, 2342, 2343, 2344, 2345, 2346, 2347, 2348, 2349, 2376, 2377, 2378, 2379, 2380, 2381, 2382
2383, 2384, 2385, 2386, 2387, 2388, 2389, 2390, 2391, 2392, 2393, 2394, 2421, 2422, 2423, 2424
2425, 2426, 2427, 2428, 2429, 2430, 2431, 2432, 2433, 2434, 2435, 2436, 2437, 2438, 2439, 2466
2467, 2468, 2469, 2470, 2471, 2472, 2473, 2474, 2475, 2476, 2477, 2478, 2479, 2480, 2481, 2482
2483, 2484, 2511, 2512, 2513, 2514, 2515, 2516, 2517, 2518, 2519, 2520
*ELSET, ELSET=ECORT_BIN_00
45, 46, 47, 48, 86, 87, 88, 89, 90, 91, 92, 130, 131, 132, 136, 137
138, 139, 140, 141, 142, 143, 144, 145, 146, 147, 148, 149, 150, 151, 152, 153
154, 155, 156, 157, 158, 159, 160, 161, 162, 163, 164, 165, 166, 167, 168, 169
170, 171, 172, 173, 181, 182, 183, 184, 185, 186, 187, 188, 189, 190, 191, 192
193, 194, 195, 196, 197, 198, 199, 200, 201, 202, 203, 204, 205, 206, 207, 208
209, 210, 211, 212, 213, 214, 215, 216, 226, 227, 228, 229, 230, 231, 232, 233
234, 235, 236, 237, 238, 239, 240, 241, 242, 243, 244, 245, 246, 247, 248, 249
250, 251, 252, 253, 254, 255, 256, 257, 258, 259, 270, 271, 272, 273, 274, 275
276, 277, 278, 279, 280, 281, 282, 283, 284, 285, 286, 287, 288, 289, 290, 291
292, 293, 294, 295, 296, 297, 298, 299, 300, 301, 302, 303, 314, 315, 316, 317
318, 319, 320, 321, 322, 323, 324, 325, 326, 327, 328, 329, 332, 333, 334, 335
336, 337, 338, 339, 340, 341, 342, 343, 344, 345, 346, 347, 358, 359, 360, 361
362, 363, 364, 365, 366, 367, 368, 369, 370, 371, 372, 377, 378, 379, 380, 381
382, 383, 384, 385, 386, 387, 388, 389, 390, 391, 397, 401, 402, 403, 404, 405
406, 407, 408, 409, 410, 411, 412, 413, 414, 415, 416, 417, 420, 421, 422, 423
424, 425, 426, 427, 428, 429, 430, 431, 432, 433, 434, 435, 436, 440, 441, 442
443, 444, 445, 446, 447, 448, 449, 450, 451, 452, 453, 454, 455, 456, 457, 458
459, 460, 461, 462, 463, 464, 465, 466, 467, 468, 469, 470, 471, 472, 473, 474
475, 476, 477, 478, 479, 480, 481, 482, 483, 484, 1717, 1718, 1719, 1720, 1721, 1722
1723, 1724, 1725, 1726, 1727, 1728, 1729, 1730, 1731, 1732, 1733, 1734, 1735, 1736, 1737, 1738
** ... 21 like lines cut
*ELSET, ELSET=ECORT_BIN_01
2, 3, 4, 42, 133, 134, 135, 174, 175, 176, 179, 180, 217, 218, 224, 225
260, 261, 268, 269, 304, 305, 312, 313, 330, 331, 348, 349, 353, 355, 356, 357
373, 374, 375, 376, 392, 393, 394, 396, 398, 399, 400, 418, 419, 437, 438, 439
1673, 1674, 1675, 1676, 1714, 1715, 1716, 2026, 2027, 2067
*ELSET, ELSET=ECORT_BIN_02
1, 43, 44, 177, 178, 219, 220, 222, 223, 262, 263, 267, 306, 309, 310, 311
350, 351, 352, 354, 395
*ELSET, ELSET=ECORT_BIN_03
221, 264, 265, 266, 307, 308, 1629, 1631, 1632, 1670, 1672, 2025, 2068
*ELSET, ELSET=ECORT_BIN_04
1630, 1671
*ELSET, ELSET=ECORT_BIN_06
1588
*ELSET, ELSET=ECORT_BIN_07
1587, 1626
*ELSET, ELSET=ECORT_BIN_08
1586
*ELSET, ELSET=ECORT_BIN_09
1585, 1627, 1628
*ELSET, ELSET=ECANC_BIN_00
573, 574, 575, 576, 614, 615, 616, 617, 618, 619, 620, 658, 659, 660, 661, 662
663, 664, 665, 666, 667, 668, 669, 670, 671, 672, 673, 674, 675, 676, 677, 678
679, 680, 681, 682, 683, 684, 685, 686, 687, 688, 689, 690, 691, 692, 693, 694
695, 696, 697, 698, 699, 700, 701, 702, 703, 704, 705, 707, 708, 709, 710, 711
712, 713, 714, 715, 716, 717, 718, 719, 720, 721, 722, 723, 724, 725, 726, 727
728, 729, 730, 731, 732, 733, 734, 735, 736, 737, 738, 739, 740, 741, 742, 743
744, 745, 746, 748, 749, 752, 753, 754, 755, 756, 757, 758, 759, 760, 761, 762
763, 764, 765, 766, 767, 768, 769, 770, 771, 772, 773, 774, 775, 776, 777, 778
779, 780, 781, 782, 783, 784, 785, 786, 787, 788, 789, 792, 793, 797, 798, 799
800, 801, 802, 803, 804, 805, 806, 807, 808, 809, 810, 811, 812, 813, 814, 815
816, 817, 818, 819, 820, 821, 822, 823, 824, 825, 826, 827, 828, 829, 830, 831
832, 836, 837, 842, 843, 844, 845, 846, 847, 848, 849, 850, 851, 852, 853, 854
855, 856, 857, 860, 861, 862, 863, 864, 865, 866, 867, 868, 869, 870, 871, 872
873, 874, 875, 880, 881, 886, 887, 888, 889, 890, 891, 892, 893, 894, 895, 896
897, 898, 899, 906, 907, 908, 909, 910, 911, 912, 913, 914, 915, 916, 917, 918
919, 924, 925, 931, 932, 933, 934, 935, 936, 937, 938, 939, 940, 941, 942, 943
950, 951, 952, 953, 954, 955, 956, 957, 958, 959, 960, 961, 962, 968, 976, 977
978, 979, 980, 981, 982, 983, 984, 985, 986, 987, 988, 993, 994, 995, 996, 997
998, 999, 1000, 1001, 1002, 1003, 1004, 1005, 1101, 1102, 1103, 1104, 1142, 1144, 1145, 1146
1147, 1148, 1186, 1187, 1188, 1189, 1190, 1191, 1192, 1193, 1194, 1195, 1196, 1197, 1198, 1199
** ... 18 like lines cut
*ELSET, ELSET=ECANC_BIN_01
529, 530, 531, 532, 570, 571, 572, 706, 747, 750, 751, 790, 791, 794, 795, 796
833, 834, 835, 838, 839, 840, 841, 858, 859, 876, 877, 878, 879, 882, 883, 884
885, 900, 905, 920, 921, 922, 923, 926, 929, 930, 944, 949, 963, 964, 967, 969
975, 989, 990, 991, 992, 1006, 1012, 1059, 1060, 1143, 1278, 1279, 1318, 1319, 1322, 1323
1324, 1325, 1361, 1362, 1363, 1366, 1367, 1368, 1369, 1384, 1389, 1404, 1405, 1406, 1407, 1410
1412, 1413, 1414, 1428, 1433, 1447, 1448, 1458, 1459, 1473, 1476, 1490, 1491, 1501, 1502, 1535
1540
*ELSET, ELSET=ECANC_BIN_02
901, 902, 904, 927, 928, 945, 948, 965, 966, 974, 1007, 1057, 1058, 1098, 1099, 1100
1385, 1386, 1387, 1388, 1411, 1449, 1450, 1451, 1454, 1457, 1474, 1475, 1492, 1495, 1500, 1536
1537
*ELSET, ELSET=ECANC_BIN_03
903, 946, 947, 973, 1008, 1429, 1430, 1431, 1432, 1455, 1456, 1493, 1494, 1498, 1499, 1538
1539
*ELSET, ELSET=ECANC_BIN_04
970, 972, 1011
*ELSET, ELSET=ECANC_BIN_05
971, 1009, 1010
*ELSET, ELSET=ETOOTHROOT
5, 6, 7, 8, 9, 10, 11, 12, 13, 14, 15, 16, 30, 31, 32, 33
34, 35, 36, 37, 38, 39, 40, 41, 49, 50, 51, 52, 53, 54, 55, 56
57, 58, 59, 60, 74, 75, 76, 77, 78, 79, 80, 81, 82, 83, 84, 85
93, 94, 95, 96, 97, 98, 99, 100, 101, 102, 103, 104, 105, 106, 107, 108
109, 110, 111, 112, 113, 114, 115, 116, 117, 118, 119, 120, 121, 122, 123, 124
125, 126, 127, 128, 129, 533, 534, 535, 536, 537, 538, 539, 540, 541, 542, 543
544, 558, 559, 560, 561, 562, 563, 564, 565, 566, 567, 568, 569, 577, 578, 579
580, 581, 582, 583, 584, 585, 586, 587, 588, 602, 603, 604, 605, 606, 607, 608
609, 610, 611, 612, 613, 621, 622, 623, 624, 625, 626, 627, 628, 629, 630, 631
632, 633, 634, 635, 636, 637, 638, 639, 640, 641, 642, 643, 644, 645, 646, 647
648, 649, 650, 651, 652, 653, 654, 655, 656, 657, 1061, 1062, 1063, 1064, 1065, 1066
1067, 1068, 1069, 1070, 1071, 1072, 1086, 1087, 1088, 1089, 1090, 1091, 1092, 1093, 1094, 1095
1096, 1097, 1105, 1106, 1107, 1108, 1109, 1110, 1111, 1112, 1113, 1114, 1115, 1116, 1130, 1131
1132, 1133, 1134, 1135, 1136, 1137, 1138, 1139, 1140, 1141, 1149, 1150, 1151, 1152, 1153, 1154
1155, 1156, 1157, 1158, 1159, 1160, 1161, 1162, 1163, 1164, 1165, 1166, 1167, 1168, 1169, 1170
1171, 1172, 1173, 1174, 1175, 1176, 1177, 1178, 1179, 1180, 1181, 1182, 1183, 1184, 1185, 1589
1590, 1591, 1592, 1593, 1594, 1595, 1596, 1597, 1598, 1599, 1600, 1614, 1615, 1616, 1617, 1618
1619, 1620, 1621, 1622, 1623, 1624, 1625, 1633, 1634, 1635, 1636, 1637, 1638, 1639, 1640, 1641
1642, 1643, 1644, 1658, 1659, 1660, 1661, 1662, 1663, 1664, 1665, 1666, 1667, 1668, 1669, 1677
1678, 1679, 1680, 1681, 1682, 1683, 1684, 1685, 1686, 1687, 1688, 1689, 1690, 1691, 1692, 1693
1694, 1695, 1696, 1697, 1698, 1699, 1700, 1701, 1702, 1703, 1704, 1705, 1706, 1707, 1708, 1709
1710, 1711, 1712, 1713
*MATERIAL, NAME=CORT_BIN_00
*ELASTIC
1.451235e+10, 0.300000
*DENSITY
1900.0
*MATERIAL, NAME=CORT_BIN_01
*ELASTIC
1.451612e+10, 0.300000
*DENSITY
1900.0
*MATERIAL, NAME=CORT_BIN_02
*ELASTIC
1.451988e+10, 0.300000
*DENSITY
1900.0
*MATERIAL, NAME=CORT_BIN_03
*ELASTIC
1.452364e+10, 0.300000
*DENSITY
1900.0
*MATERIAL, NAME=CORT_BIN_04
*ELASTIC
1.452741e+10, 0.300000
*DENSITY
1900.0
*MATERIAL, NAME=CORT_BIN_06
*ELASTIC
1.453494e+10, 0.300000
*DENSITY
1900.0
*MATERIAL, NAME=CORT_BIN_07
*ELASTIC
1.453871e+10, 0.300000
*DENSITY
1900.0
*MATERIAL, NAME=CORT_BIN_08
*ELASTIC
1.454247e+10, 0.300000
*DENSITY
1900.0
*MATERIAL, NAME=CORT_BIN_09
*ELASTIC
1.454624e+10, 0.300000
*DENSITY
1900.0
*MATERIAL, NAME=CANC_BIN_00
*ELASTIC
4.891038e+08, 0.300000
*DENSITY
800.0
*MATERIAL, NAME=CANC_BIN_01
*ELASTIC
4.891884e+08, 0.300000
*DENSITY
800.0
*MATERIAL, NAME=CANC_BIN_02
*ELASTIC
4.892729e+08, 0.300000
*DENSITY
800.0
*MATERIAL, NAME=CANC_BIN_03
*ELASTIC
4.893575e+08, 0.300000
*DENSITY
800.0
*MATERIAL, NAME=CANC_BIN_04
*ELASTIC
4.894420e+08, 0.300000
*DENSITY
800.0
*MATERIAL, NAME=CANC_BIN_05
*ELASTIC
4.895266e+08, 0.300000
*DENSITY
800.0
*MATERIAL, NAME=TOOTH_ROOT
*ELASTIC
2.000000e+10, 0.310000
*DENSITY
2100.0
*SOLID SECTION, ELSET=ECORT_BIN_00, MATERIAL=CORT_BIN_00
,
*SOLID SECTION, ELSET=ECORT_BIN_01, MATERIAL=CORT_BIN_01
,
*SOLID SECTION, ELSET=ECORT_BIN_02, MATERIAL=CORT_BIN_02
,
*SOLID SECTION, ELSET=ECORT_BIN_03, MATERIAL=CORT_BIN_03
,
*SOLID SECTION, ELSET=ECORT_BIN_04, MATERIAL=CORT_BIN_04
,
*SOLID SECTION, ELSET=ECORT_BIN_06, MATERIAL=CORT_BIN_06
,
*SOLID SECTION, ELSET=ECORT_BIN_07, MATERIAL=CORT_BIN_07
,
*SOLID SECTION, ELSET=ECORT_BIN_08, MATERIAL=CORT_BIN_08
,
*SOLID SECTION, ELSET=ECORT_BIN_09, MATERIAL=CORT_BIN_09
,
*SOLID SECTION, ELSET=ECANC_BIN_00, MATERIAL=CANC_BIN_00
,
*SOLID SECTION, ELSET=ECANC_BIN_01, MATERIAL=CANC_BIN_01
,
*SOLID SECTION, ELSET=ECANC_BIN_02, MATERIAL=CANC_BIN_02
,
*SOLID SECTION, ELSET=ECANC_BIN_03, MATERIAL=CANC_BIN_03
,
*SOLID SECTION, ELSET=ECANC_BIN_04, MATERIAL=CANC_BIN_04
,
*SOLID SECTION, ELSET=ECANC_BIN_05, MATERIAL=CANC_BIN_05
,
*SOLID SECTION, ELSET=ETOOTHROOT, MATERIAL=TOOTH_ROOT
,
*ELSET, ELSET=ESUTURE_MID
485, 486, 487, 488, 489, 490, 491, 492, 493, 494, 495, 496, 497, 498, 499, 500
501, 502, 503, 504, 505, 506, 507, 508, 509, 510, 511, 512, 513, 514, 515, 516
517, 518, 519, 520, 521, 522, 523, 524, 525, 526, 527, 528, 1013, 1014, 1015, 1016
1017, 1018, 1019, 1020, 1021, 1022, 1023, 1024, 1025, 1026, 1027, 1028, 1029, 1030, 1031, 1032
1033, 1034, 1035, 1036, 1037, 1038, 1039, 1040, 1041, 1042, 1043, 1044, 1045, 1046, 1047, 1048
1049, 1050, 1051, 1052, 1053, 1054, 1055, 1056, 1541, 1542, 1543, 1544, 1545, 1546, 1547, 1548
1549, 1550, 1551, 1552, 1553, 1554, 1555, 1556, 1557, 1558, 1559, 1560, 1561, 1562, 1563, 1564
1565, 1566, 1567, 1568, 1569, 1570, 1571, 1572, 1573, 1574, 1575, 1576, 1577, 1578, 1579, 1580
1581, 1582, 1583, 1584, 2069, 2070, 2071, 2072, 2073, 2074, 2075, 2076, 2077, 2078, 2079, 2080
2081, 2082, 2083, 2084, 2085, 2086, 2087, 2088, 2089, 2090, 2091, 2092, 2093, 2094, 2095, 2096
2097, 2098, 2099, 2100, 2101, 2102, 2103, 2104, 2105, 2106, 2107, 2108, 2109, 2110, 2111, 2112
*ELSET, ELSET=ESUTURE_LAT
17, 18, 19, 20, 21, 22, 23, 24, 25, 26, 27, 28, 29, 61, 62, 63
64, 65, 66, 67, 68, 69, 70, 71, 72, 73, 545, 546, 547, 548, 549, 550
551, 552, 553, 554, 555, 556, 557, 589, 590, 591, 592, 593, 594, 595, 596, 597
598, 599, 600, 601, 1073, 1074, 1075, 1076, 1077, 1078, 1079, 1080, 1081, 1082, 1083, 1084
1085, 1117, 1118, 1119, 1120, 1121, 1122, 1123, 1124, 1125, 1126, 1127, 1128, 1129, 1601, 1602
1603, 1604, 1605, 1606, 1607, 1608, 1609, 1610, 1611, 1612, 1613, 1645, 1646, 1647, 1648, 1649
1650, 1651, 1652, 1653, 1654, 1655, 1656, 1657
*MATERIAL, NAME=SUTURE
*ELASTIC
5.000000e+07, 0.300000
*DENSITY
1200.0
*SOLID SECTION, ELSET=ESUTURE_MID, MATERIAL=SUTURE
,
*SOLID SECTION, ELSET=ESUTURE_LAT, MATERIAL=SUTURE
,
*STEP
*STATIC
1., 1.
*BOUNDARY
NSET_FIXED, 1, 3, 0.0
*CLOAD
1, 1, -1.802131e-05
1, 2, 5.221900e-04
1, 3, -3.001548e-04
2, 1, -5.312420e-06
2, 2, 5.683475e-04
2, 3, -3.196443e-04
3, 1, 2.331175e-05
3, 2, 6.191120e-04
3, 3, -3.335441e-04
4, 1, 5.405999e-05
4, 2, 6.708745e-04
4, 3, -3.462387e-04
5, 1, 7.281422e-05
5, 2, 7.214220e-04
5, 3, -3.643909e-04
6, 1, -0.000000e+00
6, 2, -0.000000e+00
6, 3, -8.670759e-04
7, 1, -0.000000e+00
7, 2, -0.000000e+00
** ... 1735 like lines cut
*CLOAD
2341, 1, -3.316791e-02
2341, 2, 1.658395e-02
2341, 3, -7.462779e-02
2386, 1, -3.316791e-02
2386, 2, 1.658395e-02
2386, 3, -7.462779e-02
2431, 1, -3.316791e-02
2431, 2, 1.658395e-02
2431, 3, -7.462779e-02
2476, 1, -3.316791e-02
2476, 2, 1.658395e-02
2476, 3, -7.462779e-02
2342, 1, -3.316791e-02
2342, 2, 1.658395e-02
2342, 3, -7.462779e-02
2387, 1, -3.316791e-02
2387, 2, 1.658395e-02
2387, 3, -7.462779e-02
2432, 1, -3.316791e-02
2432, 2, 1.658395e-02
** ... 208 like lines cut
*NODE FILE
U
*EL FILE
S, ENER
*NODE PRINT, NSET=NALL
U
*EL PRINT, ELSET=EALL
S
*EL PRINT, ELSET=EALL
ENER
*END STEP
