*HEADING
Template maxilla MVP - medium_kpa_plus_muscle
*NODE
1, 0.00000000, 0.00000000, 0.00000000
2, 0.00571429, 0.00032143, 0.00000000
3, 0.01142857, 0.00064286, 0.00000000
4, 0.01714286, 0.00096429, 0.00000000
5, 0.02285714, 0.00128571, 0.00000000
6, 0.02857143, 0.00160714, 0.00000000
7, 0.03428571, 0.00192857, 0.00000000
8, 0.04000000, 0.00225000, 0.00000000
9, 0.04571429, 0.00257143, 0.00000000
10, 0.05142857, 0.00289286, 0.00000000
11, 0.05714286, 0.00321429, 0.00000000
12, 0.06285714, 0.00353571, 0.00000000
13, 0.06857143, 0.00385714, 0.00000000
14, 0.07428571, 0.00417857, 0.00000000
15, 0.08000000, 0.00450000, 0.00000000
16, 0.00000000, 0.00500000, 0.00000000
17, 0.00571429, 0.00525714, 0.00000000
18, 0.01142857, 0.00551429, 0.00000000
19, 0.01714286, 0.00577143, 0.00000000
20, 0.02285714, 0.00602857, 0.00000000
** ... 970 like lines cut
*ELEMENT, TYPE=C3D8, ELSET=EALL
1, 1, 2, 17, 16, 166, 167, 182, 181
2, 2, 3, 18, 17, 167, 168, 183, 182
3, 3, 4, 19, 18, 168, 169, 184, 183
4, 4, 5, 20, 19, 169, 170, 185, 184
5, 5, 6, 21, 20, 170, 171, 186, 185
6, 6, 7, 22, 21, 171, 172, 187, 186
7, 7, 8, 23, 22, 172, 173, 188, 187
8, 8, 9, 24, 23, 173, 174, 189, 188
9, 9, 10, 25, 24, 174, 175, 190, 189
10, 10, 11, 26, 25, 175, 176, 191, 190
11, 11, 12, 27, 26, 176, 177, 192, 191
12, 12, 13, 28, 27, 177, 178, 193, 192
13, 13, 14, 29, 28, 178, 179, 194, 193
14, 14, 15, 30, 29, 179, 180, 195, 194
15, 16, 17, 32, 31, 181, 182, 197, 196
16, 17, 18, 33, 32, 182, 183, 198, 197
17, 18, 19, 34, 33, 183, 184, 199, 198
18, 19, 20, 35, 34, 184, 185, 200, 199
19, 20, 21, 36, 35, 185, 186, 201, 200
20, 21, 22, 37, 36, 186, 187, 202, 201
** ... 680 like lines cut
*NSET, NSET=NALL
1, 2, 3, 4, 5, 6, 7, 8, 9, 10, 11, 12, 13, 14, 15, 16
17, 18, 19, 20, 21, 22, 23, 24, 25, 26, 27, 28, 29, 30, 31, 32
33, 34, 35, 36, 37, 38, 39, 40, 41, 42, 43, 44, 45, 46, 47, 48
49, 50, 51, 52, 53, 54, 55, 56, 57, 58, 59, 60, 61, 62, 63, 64
65, 66, 67, 68, 69, 70, 71, 72, 73, 74, 75, 76, 77, 78, 79, 80
81, 82, 83, 84, 85, 86, 87, 88, 89, 90, 91, 92, 93, 94, 95, 96
97, 98, 99, 100, 101, 102, 103, 104, 105, 106, 107, 108, 109, 110, 111, 112
113, 114, 115, 116, 117, 118, 119, 120, 121, 122, 123, 124, 125, 126, 127, 128
129, 130, 131, 132, 133, 134, 135, 136, 137, 138, 139, 140, 141, 142, 143, 144
145, 146, 147, 148, 149, 150, 151, 152, 153, 154, 155, 156, 157, 158, 159, 160
161, 162, 163, 164, 165, 166, 167, 168, 169, 170, 171, 172, 173, 174, 175, 176
177, 178, 179, 180, 181, 182, 183, 184, 185, 186, 187, 188, 189, 190, 191, 192
193, 194, 195, 196, 197, 198, 199, 200, 201, 202, 203, 204, 205, 206, 207, 208
209, 210, 211, 212, 213, 214, 215, 216, 217, 218, 219, 220, 221, 222, 223, 224
225, 226, 227, 228, 229, 230, 231, 232, 233, 234, 235, 236, 237, 238, 239, 240
241, 242, 243, 244, 245, 246, 247, 248, 249, 250, 251, 252, 253, 254, 255, 256
257, 258, 259, 260, 261, 262, 263, 264, 265, 266, 267, 268, 269, 270, 271, 272
273, 274, 275, 276, 277, 278, 279, 280, 281, 282, 283, 284, 285, 286, 287, 288
289, 290, 291, 292, 293, 294, 295, 296, 297, 298, 299, 300, 301, 302, 303, 304
305, 306, 307, 308, 309, 310, 311, 312, 313, 314, 315, 316, 317, 318, 319, 320
** ... 42 like lines cut
*NSET, NSET=NSET_FIXED
1, 16, 31, 46, 61, 76, 91, 106, 121, 136, 151, 166, 181, 196, 211, 226
241, 256, 271, 286, 301, 316, 331, 346, 361, 376, 391, 406, 421, 436, 451, 466
481, 496, 511, 526, 541, 556, 571, 586, 601, 616, 631, 646, 661, 676, 691, 706
721, 736, 751, 766, 781, 796, 811, 826, 841, 856, 871, 886, 901, 916, 931, 946
961, 976
*NSET, NSET=NSET_PALATE
826, 827, 828, 829, 830, 831, 832, 833, 834, 835, 836, 837, 838, 839, 840, 841
842, 843, 844, 845, 846, 847, 848, 849, 850, 851, 852, 853, 854, 855, 856, 857
858, 859, 860, 861, 862, 863, 864, 865, 866, 867, 868, 869, 870, 871, 872, 873
874, 875, 876, 877, 878, 879, 880, 881, 882, 883, 884, 885, 886, 887, 888, 889
890, 891, 892, 893, 894, 895, 896, 897, 898, 899, 900, 901, 902, 903, 904, 905
906, 907, 908, 909, 910, 911, 912, 913, 914, 915, 916, 917, 918, 919, 920, 921
922, 923, 924, 925, 926, 927, 928, 929, 930, 931, 932, 933, 934, 935, 936, 937
938, 939, 940, 941, 942, 943, 944, 945, 946, 947, 948, 949, 950, 951, 952, 953
954, 955, 956, 957, 958, 959, 960, 961, 962, 963, 964, 965, 966, 967, 968, 969
970, 971, 972, 973, 974, 975, 976, 977, 978, 979, 980, 981, 982, 983, 984, 985
986, 987, 988, 989, 990
*NSET, NSET=NSET_MUSCLE_ALL
835, 836, 837, 838, 839, 840, 850, 851, 852, 853, 854, 855, 865, 866, 867, 868
869, 870, 955, 956, 957, 958, 959, 960, 970, 971, 972, 973, 974, 975, 985, 986
987, 988, 989, 990
*ELSET, ELSET=ESET_BONE
1, 2, 3, 4, 5, 6, 7, 15, 16, 17, 18, 19, 20, 21, 29, 30
31, 32, 33, 34, 35, 36, 37, 38, 39, 40, 41, 42, 43, 44, 45, 46
47, 48, 49, 50, 51, 52, 53, 54, 55, 56, 57, 58, 59, 60, 61, 62
63, 64, 65, 66, 67, 68, 69, 70, 85, 86, 87, 88, 89, 90, 91, 92
93, 94, 95, 96, 97, 98, 99, 100, 101, 102, 103, 104, 105, 106, 107, 108
109, 110, 111, 112, 113, 114, 115, 116, 117, 118, 119, 127, 128, 129, 130, 131
132, 133, 141, 142, 143, 144, 145, 146, 147, 155, 156, 157, 158, 159, 160, 161
169, 170, 171, 172, 173, 174, 175, 176, 177, 178, 179, 180, 181, 182, 183, 184
185, 186, 187, 188, 189, 190, 191, 192, 193, 194, 195, 196, 197, 198, 199, 200
201, 202, 203, 204, 205, 206, 207, 208, 209, 210, 225, 226, 227, 228, 229, 230
231, 232, 233, 234, 235, 236, 237, 238, 239, 240, 241, 242, 243, 244, 245, 246
247, 248, 249, 250, 251, 252, 253, 254, 255, 256, 257, 258, 259, 267, 268, 269
270, 271, 272, 273, 281, 282, 283, 284, 285, 286, 287, 295, 296, 297, 298, 299
300, 301, 309, 310, 311, 312, 313, 314, 315, 316, 317, 318, 319, 320, 321, 322
323, 324, 325, 326, 327, 328, 329, 330, 331, 332, 333, 334, 335, 336, 337, 338
339, 340, 341, 342, 343, 344, 345, 346, 347, 348, 349, 350, 365, 366, 367, 368
369, 370, 371, 372, 373, 374, 375, 376, 377, 378, 379, 380, 381, 382, 383, 384
385, 386, 387, 388, 389, 390, 391, 392, 393, 394, 395, 396, 397, 398, 399, 407
408, 409, 410, 411, 412, 413, 421, 422, 423, 424, 425, 426, 427, 435, 436, 437
438, 439, 440, 441, 449, 450, 451, 452, 453, 454, 455, 456, 457, 458, 459, 460
** ... 11 like lines cut
*ELSET, ELSET=ESET_SUTURE_MID
71, 72, 73, 74, 75, 76, 77, 78, 79, 80, 81, 82, 83, 84, 211, 212
213, 214, 215, 216, 217, 218, 219, 220, 221, 222, 223, 224, 351, 352, 353, 354
355, 356, 357, 358, 359, 360, 361, 362, 363, 364, 491, 492, 493, 494, 495, 496
497, 498, 499, 500, 501, 502, 503, 504, 631, 632, 633, 634, 635, 636, 637, 638
639, 640, 641, 642, 643, 644
*ELSET, ELSET=ESET_SUTURE_LAT
8, 9, 10, 11, 12, 13, 14, 22, 23, 24, 25, 26, 27, 28, 120, 121
122, 123, 124, 125, 126, 134, 135, 136, 137, 138, 139, 140, 148, 149, 150, 151
152, 153, 154, 162, 163, 164, 165, 166, 167, 168, 260, 261, 262, 263, 264, 265
266, 274, 275, 276, 277, 278, 279, 280, 288, 289, 290, 291, 292, 293, 294, 302
303, 304, 305, 306, 307, 308, 400, 401, 402, 403, 404, 405, 406, 414, 415, 416
417, 418, 419, 420, 428, 429, 430, 431, 432, 433, 434, 442, 443, 444, 445, 446
447, 448, 540, 541, 542, 543, 544, 545, 546, 554, 555, 556, 557, 558, 559, 560
568, 569, 570, 571, 572, 573, 574, 582, 583, 584, 585, 586, 587, 588, 680, 681
682, 683, 684, 685, 686, 694, 695, 696, 697, 698, 699, 700
*MATERIAL, NAME=BONE
*ELASTIC
1.000000e+09, 0.300000
*MATERIAL, NAME=SUTURE
*ELASTIC
5.000000e+07, 0.400000
*SOLID SECTION, ELSET=ESET_BONE, MATERIAL=BONE
,
*SOLID SECTION, ELSET=ESET_SUTURE_MID, MATERIAL=SUTURE
,
*SOLID SECTION, ELSET=ESET_SUTURE_LAT, MATERIAL=SUTURE
,
*STEP
*STATIC
1., 1.
*BOUNDARY
NSET_FIXED, 1, 3, 0.0
*CLOAD
826, 3, -4.848485e-02
827, 3, -4.848485e-02
828, 3, -4.848485e-02
829, 3, -4.848485e-02
830, 3, -4.848485e-02
831, 3, -4.848485e-02
832, 3, -4.848485e-02
833, 3, -4.848485e-02
834, 3, -4.848485e-02
835, 3, -4.848485e-02
836, 3, -4.848485e-02
837, 3, -4.848485e-02
838, 3, -4.848485e-02
839, 3, -4.848485e-02
840, 3, -4.848485e-02
841, 3, -4.848485e-02
842, 3, -4.848485e-02
843, 3, -4.848485e-02
844, 3, -4.848485e-02
845, 3, -4.848485e-02
** ... 145 like lines cut
*CLOAD
835, 1, -6.633581e-02
835, 2, 3.316791e-02
835, 3, -1.492556e-01
836, 1, -6.633581e-02
836, 2, 3.316791e-02
836, 3, -1.492556e-01
837, 1, -6.633581e-02
837, 2, 3.316791e-02
837, 3, -1.492556e-01
838, 1, -6.633581e-02
838, 2, 3.316791e-02
838, 3, -1.492556e-01
839, 1, -6.633581e-02
839, 2, 3.316791e-02
839, 3, -1.492556e-01
840, 1, -6.633581e-02
840, 2, 3.316791e-02
840, 3, -1.492556e-01
850, 1, -6.633581e-02
850, 2, 3.316791e-02
** ... 88 like lines cut
*NODE FILE
U
*EL FILE
S
*NODE PRINT, NSET=NALL
U
*EL PRINT, ELSET=EALL
S
*END STEP
